/*--------------------------------*- C++ -*----------------------------------*\
  =========                 |
  \\      /  F ield         | OpenFOAM: The Open Source CFD Toolbox
   \\    /   O peration     | Website:  https://openfoam.org
    \\  /    A nd           | Version:  9
     \\/     M anipulation  |
\*---------------------------------------------------------------------------*/
FoamFile
{
    format      ascii;
    class       extendedFeatureEdgeMesh;
    location    "constant/extendedFeatureEdgeMesh";
    object      test_2.extendedFeatureEdgeMesh;
}
// * * * * * * * * * * * * * * * * * * * * * * * * * * * * * * * * * * * * * //

// points

48
(
(0 5.50573 0.5)
(0 4.50573 0.5)
(80 27.0316 0.5)
(80 28.0316 0.5)
(0 4.50573 -0.5)
(0 5.50573 -0.5)
(80 28.0316 -0.5)
(80 27.0316 -0.5)
(27.0564 5.50573 0.5)
(18.2462 4.48724 0.5)
(9.22741 4.48724 0.5)
(9.22741 3.48724 0.5)
(18.2462 3.48724 0.5)
(27.0564 4.50573 0.5)
(74.4398 26.4747 0.5)
(74.4398 27.4747 0.5)
(69.1006 25.8259 0.5)
(35.5785 7.51893 0.5)
(35.5785 6.51893 0.5)
(43.8959 10.5316 0.5)
(43.8959 9.53165 0.5)
(52.0085 14.5439 0.5)
(52.0085 13.5439 0.5)
(59.9165 19.5557 0.5)
(59.9165 18.5557 0.5)
(64.1945 23.1508 0.5)
(64.1945 22.1508 0.5)
(69.1006 24.8259 0.5)
(18.2462 4.48724 -0.5)
(27.0564 5.50573 -0.5)
(27.0564 4.50573 -0.5)
(18.2462 3.48724 -0.5)
(9.22741 3.48724 -0.5)
(9.22741 4.48724 -0.5)
(69.1006 25.8259 -0.5)
(74.4398 27.4747 -0.5)
(74.4398 26.4747 -0.5)
(69.1006 24.8259 -0.5)
(64.1945 22.1508 -0.5)
(64.1945 23.1508 -0.5)
(59.9165 18.5557 -0.5)
(59.9165 19.5557 -0.5)
(52.0085 13.5439 -0.5)
(52.0085 14.5439 -0.5)
(43.8959 9.53165 -0.5)
(43.8959 10.5316 -0.5)
(35.5785 6.51893 -0.5)
(35.5785 7.51893 -0.5)
)

// edges

52
(
(8 9)
(0 1)
(10 0)
(1 11)
(9 10)
(11 12)
(12 13)
(2 3)
(14 2)
(3 15)
(15 16)
(17 8)
(13 18)
(19 17)
(18 20)
(21 19)
(20 22)
(23 21)
(22 24)
(25 23)
(24 26)
(16 25)
(26 27)
(27 14)
(28 29)
(30 31)
(31 32)
(33 28)
(32 4)
(4 5)
(5 33)
(34 35)
(35 6)
(6 7)
(7 36)
(36 37)
(37 38)
(39 34)
(38 40)
(41 39)
(40 42)
(43 41)
(42 44)
(45 43)
(44 46)
(47 45)
(46 30)
(29 47)
(6 3)
(2 7)
(1 4)
(0 5)
)

// concaveStart mixedStart nonFeatureStart
8 8 8
// internalStart flatStart openStart multipleStart
52 52 52 52
// normals

92
(
(0 0 1)
(-0.114839 0.993384 0)
(0 0 1)
(-1 -0 0)
(0.10971 0.993964 0)
(0 0 1)
(-0.10971 -0.993964 0)
(-0 0 1)
(0 1 0)
(0 0 1)
(0 -1 0)
(-0 0 1)
(0.114839 -0.993384 0)
(0 -0 1)
(1 0 0)
(0.0996717 -0.99502 0)
(0 0 1)
(-0.0996717 0.99502 0)
(0 -0 1)
(-0.295062 0.955478 0)
(-0 0 1)
(-0.229906 0.973213 0)
(0 0 1)
(0.229906 -0.973213 0)
(-0 0 1)
(-0.340567 0.94022 0)
(0 0 1)
(0.340567 -0.94022 0)
(-0 0 1)
(-0.443314 0.896367 0)
(0 0 1)
(0.443313 -0.896367 0)
(-0 0 1)
(-0.535312 0.844654 0)
(0 0 1)
(0.535312 -0.844654 0)
(-0 0 1)
(-0.643357 0.765566 0)
(0 0 1)
(0.643357 -0.765566 0)
(-0 0 1)
(-0.478719 0.877968 0)
(0 0 1)
(0.478719 -0.877968 0)
(-0 0 1)
(0.295062 -0.955478 0)
(-0 0 -1)
(-0.114839 0.993384 0)
(0 0 -1)
(0.114839 -0.993384 0)
(0 -0 -1)
(0 -1 0)
(-0 0 -1)
(0 1 0)
(-0 -0 -1)
(-0.10971 -0.993964 0)
(0 0 -1)
(-1 0 0)
(0.10971 0.993964 0)
(0 0 -1)
(-0.295062 0.955478 0)
(0 0 -1)
(-0.0996717 0.99502 0)
(0 0 -1)
(1 0 -0)
(0.0996717 -0.99502 0)
(0 0 -1)
(0.295062 -0.955478 0)
(0 -0 -1)
(0.478719 -0.877968 0)
(0 0 -1)
(-0.478719 0.877968 0)
(0 -0 -1)
(0.643357 -0.765566 0)
(0 0 -1)
(-0.643357 0.765566 0)
(0 -0 -1)
(0.535312 -0.844654 0)
(0 0 -1)
(-0.535312 0.844654 0)
(0 -0 -1)
(0.443313 -0.896367 0)
(0 0 -1)
(-0.443314 0.896367 0)
(0 -0 -1)
(0.340567 -0.94022 0)
(0 0 -1)
(-0.340567 0.94022 0)
(0 -0 -1)
(0.229906 -0.973213 0)
(0 0 -1)
(-0.229906 0.973213 0)
)

// normal volume types

92
(
0
0
0
0
0
0
0
0
0
0
0
0
0
0
0
0
0
0
0
0
0
0
0
0
0
0
0
0
0
0
0
0
0
0
0
0
0
0
0
0
0
0
0
0
0
0
0
0
0
0
0
0
0
0
0
0
0
0
0
0
0
0
0
0
0
0
0
0
0
0
0
0
0
0
0
0
0
0
0
0
0
0
0
0
0
0
0
0
0
0
0
0
)

// normalDirections

52
(
2(1 -1)
2(1 -1)
2(1 -1)
2(1 -1)
2(1 -1)
2(1 -1)
2(1 -1)
2(1 -1)
2(1 -1)
2(1 -1)
2(1 -1)
2(1 -1)
2(1 -1)
2(1 -1)
2(1 -1)
2(1 -1)
2(1 -1)
2(1 -1)
2(1 -1)
2(1 -1)
2(1 -1)
2(1 -1)
2(1 -1)
2(1 -1)
2(1 -1)
2(1 -1)
2(1 -1)
2(1 -1)
2(1 -1)
2(1 -1)
2(1 -1)
2(1 -1)
2(1 -1)
2(1 -1)
2(1 -1)
2(1 -1)
2(1 -1)
2(1 -1)
2(1 -1)
2(1 -1)
2(1 -1)
2(1 -1)
2(1 -1)
2(1 -1)
2(1 -1)
2(1 -1)
2(1 -1)
2(1 -1)
2(1 -1)
2(1 -1)
2(1 -1)
2(1 -1)
)

// edgeNormals

52
(
2(0 1)
2(2 3)
2(2 4)
2(5 6)
2(7 8)
2(9 10)
2(11 12)
2(13 14)
2(13 15)
2(16 17)
2(18 19)
2(20 21)
2(22 23)
2(24 25)
2(26 27)
2(28 29)
2(30 31)
2(32 33)
2(34 35)
2(36 37)
2(38 39)
2(40 41)
2(42 43)
2(44 45)
2(46 47)
2(48 49)
2(50 51)
2(52 53)
2(54 55)
2(56 57)
2(56 58)
2(59 60)
2(61 62)
2(63 64)
2(63 65)
2(66 67)
2(68 69)
2(70 71)
2(72 73)
2(74 75)
2(76 77)
2(78 79)
2(80 81)
2(82 83)
2(84 85)
2(86 87)
2(88 89)
2(90 91)
2(64 17)
2(14 15)
2(6 3)
2(57 4)
)

// featurePointNormals

8
(
3(2 3 4)
3(2 3 6)
3(13 14 15)
3(13 14 17)
3(54 55 57)
3(56 57 58)
3(61 62 64)
3(63 64 65)
)

// featurePointEdges

8
(
3(1 51 2)
3(3 50 1)
3(7 49 8)
3(9 48 7)
3(29 50 28)
3(29 51 30)
3(33 48 32)
3(33 49 34)
)

// regionEdges
0()


// ************************************************************************* //
