/*--------------------------------*- C++ -*----------------------------------*\
  =========                 |
  \\      /  F ield         | OpenFOAM: The Open Source CFD Toolbox
   \\    /   O peration     | Website:  https://openfoam.org
    \\  /    A nd           | Version:  9
     \\/     M anipulation  |
\*---------------------------------------------------------------------------*/
FoamFile
{
    format      ascii;
    class       featureEdgeMesh;
    location    "constant/triSurface";
    object      test_2.eMesh;
}
// * * * * * * * * * * * * * * * * * * * * * * * * * * * * * * * * * * * * * //


// points:

48
(
(0 5.50573 0.5)
(0 4.50573 0.5)
(80 27.0316 0.5)
(80 28.0316 0.5)
(0 4.50573 -0.5)
(0 5.50573 -0.5)
(80 28.0316 -0.5)
(80 27.0316 -0.5)
(27.0564 5.50573 0.5)
(18.2462 4.48724 0.5)
(9.22741 4.48724 0.5)
(9.22741 3.48724 0.5)
(18.2462 3.48724 0.5)
(27.0564 4.50573 0.5)
(74.4398 26.4747 0.5)
(74.4398 27.4747 0.5)
(69.1006 25.8259 0.5)
(35.5785 7.51893 0.5)
(35.5785 6.51893 0.5)
(43.8959 10.5316 0.5)
(43.8959 9.53165 0.5)
(52.0085 14.5439 0.5)
(52.0085 13.5439 0.5)
(59.9165 19.5557 0.5)
(59.9165 18.5557 0.5)
(64.1945 23.1508 0.5)
(64.1945 22.1508 0.5)
(69.1006 24.8259 0.5)
(18.2462 4.48724 -0.5)
(27.0564 5.50573 -0.5)
(27.0564 4.50573 -0.5)
(18.2462 3.48724 -0.5)
(9.22741 3.48724 -0.5)
(9.22741 4.48724 -0.5)
(69.1006 25.8259 -0.5)
(74.4398 27.4747 -0.5)
(74.4398 26.4747 -0.5)
(69.1006 24.8259 -0.5)
(64.1945 22.1508 -0.5)
(64.1945 23.1508 -0.5)
(59.9165 18.5557 -0.5)
(59.9165 19.5557 -0.5)
(52.0085 13.5439 -0.5)
(52.0085 14.5439 -0.5)
(43.8959 9.53165 -0.5)
(43.8959 10.5316 -0.5)
(35.5785 6.51893 -0.5)
(35.5785 7.51893 -0.5)
)


// edges:

52
(
(8 9)
(0 1)
(10 0)
(1 11)
(9 10)
(11 12)
(12 13)
(2 3)
(14 2)
(3 15)
(15 16)
(17 8)
(13 18)
(19 17)
(18 20)
(21 19)
(20 22)
(23 21)
(22 24)
(25 23)
(24 26)
(16 25)
(26 27)
(27 14)
(28 29)
(30 31)
(31 32)
(33 28)
(32 4)
(4 5)
(5 33)
(34 35)
(35 6)
(6 7)
(7 36)
(36 37)
(37 38)
(39 34)
(38 40)
(41 39)
(40 42)
(43 41)
(42 44)
(45 43)
(44 46)
(47 45)
(46 30)
(29 47)
(6 3)
(2 7)
(1 4)
(0 5)
)

// * * * * * * * * * * * * * * * * * * * * * * * * * * * * * * * * * * * * * //


// ************************************************************************* //
